Circuit: * C:\Users\mdfar\OneDrive\Desktop\251\leb\leb1\20301378_MdFarhadMahamudAzad_lab01.asc


Date: Wed Nov 10 16:31:12 2021
Total elapsed time: 0.465 seconds.

tnom = 27
temp = 27
method = trap
totiter = 32009
traniter = 0
tranpoints = 0
accept = 0
rejected = 0
matrix size = 4
fillins = 0
solver = Normal
Matrix Compiler1:       6 opcodes  0.1/[0.0]/0.1
Matrix Compiler2: 248 bytes object code size  0.1/0.1/[0.0]

