Circuit: * C:\Users\mdfar\OneDrive\Desktop\251\leb\leb1\Draft1.asc

.OP point found by inspection.

Date: Sun Nov 28 16:40:07 2021
Total elapsed time: 0.114 seconds.

tnom = 27
temp = 27
method = modified trap
totiter = 2538
traniter = 2538
tranpoints = 1154
accept = 1083
rejected = 71
matrix size = 8
fillins = 0
solver = Normal
Matrix Compiler1: 318 bytes object code size  0.1/0.1/[0.1]
Matrix Compiler2: 574 bytes object code size  0.1/0.2/[0.1]

