Circuit: * C:\Users\mdfar\Downloads\251 lab2\Draft1.asc

.OP point found by inspection.

Date: Sun Nov 28 16:58:08 2021
Total elapsed time: 0.084 seconds.

tnom = 27
temp = 27
method = modified trap
totiter = 2538
traniter = 2538
tranpoints = 1154
accept = 1083
rejected = 71
matrix size = 8
fillins = 0
solver = Normal
Matrix Compiler1: 318 bytes object code size  0.1/0.1/[0.1]
Matrix Compiler2: off  [0.1]/0.1/0.1

